* Generated by Xic from cell MITLL_JTL

.subckt MITLL_JTL IN OUT
B0 3 7 11 jjmit area=2.5
B1 4 9 12 jjmit area=2.5
L0 5 6 1p
L1 IN 3 2p
L2 3 6 2p
L3 6 4 2p
L4 4 OUT 2p
L5 7 0 0.2p
L6 8 0 1p
L7 9 0 0.2p
L8 10 0 1p
R0 3 8 3.88
R1 4 10 3.88
.ends MITLL_JTL
.model jjmit jj(rtype=1, vg=2.8mV, cap=0.07pF, r0=160, rn=16, icrit=0.1mA)

* YBCO


